*INCLUDE, INPUT=all.msh
*INCLUDE, INPUT=fix1_beam.nam
*INCLUDE, INPUT=interface_beam.nam
*MATERIAL, Name=EL
*ELASTIC
 4000000, 0.3
*DENSITY
 3000
*SOLID SECTION, Elset=Eall, Material=EL
*STEP, INC=1000000
*DYNAMIC, ALPHA=0.0, DIRECT
{{timestep}}, {{endtime}}
*BOUNDARY
Nfix1, 1, 3
*BOUNDARY
Nall, 3
*CLOAD
 Nsurface, 1, {{xForce}}
 Nsurface, 2, {{yForce}}
 Nsurface, 3, {{zForce}}
*NODE FILE, FREQUENCY={{frequency}}
 U
*EL FILE
 S, E
*END STEP
